Version 4
SHEET 1 880 680
WIRE 192 -80 192 -112
WIRE 384 -80 384 -112
WIRE 192 -32 192 -64
WIRE 384 -32 384 -64
WIRE 192 128 192 96
WIRE 288 128 192 128
WIRE 384 128 384 96
WIRE 384 128 288 128
WIRE 288 144 288 128
WIRE 288 176 288 160
WIRE 288 320 288 304
FLAG -288 -16 Vb
FLAG -160 -16 V1
FLAG -48 -16 V2
FLAG -160 112 0
FLAG -48 112 0
FLAG -416 112 0
FLAG -288 112 0
FLAG 128 32 V1
FLAG 448 32 V2
FLAG 224 240 Vb
FLAG 288 320 0
SYMBOL cktsym\\vsource -160 48 R0
SYMATTR Value 3.6
SYMATTR InstName V1
SYMBOL cktsym\\vsource -48 48 R0
SYMATTR Value 3
SYMATTR InstName V2
SYMBOL cktsym\\vsource -416 48 R0
SYMATTR Value 5
SYMATTR InstName Vdd
SYMBOL cktsym\\vsource -288 48 R0
SYMATTR Value 1
SYMATTR InstName Vb
SYMBOL cktsym\\vdd -416 -16 R0
SYMATTR InstName U5
SYMBOL cktsym\\nmos3 288 240 R0
SYMATTR InstName U1
SYMBOL cktsym\\nmos3 192 32 R0
SYMATTR InstName U2
SYMBOL cktsym\\nmos3 384 32 R180
WINDOW 0 15 15 Left 0
SYMATTR InstName U3
SYMBOL cktsym\\ammeter2 192 -80 R0
SYMATTR InstName I1
SYMBOL cktsym\\ammeter2 384 -80 R0
SYMATTR InstName I2
SYMBOL cktsym\\ammeter2 288 144 R0
SYMATTR InstName Ib
SYMBOL cktsym\\vdd 192 -112 R0
SYMATTR InstName U4
SYMBOL cktsym\\vdd 384 -112 R0
SYMATTR InstName U6
TEXT -392 168 Left 2 !.include engr2420.sub
TEXT -392 200 Left 2 !.dc V1 2.2 3.8 0.001
TEXT -344 -152 Left 2 ;WI-MI: Vb = 0.6152 V\nSI: Vb = 1 V
