Version 4
SHEET 1 880 680
WIRE 176 96 176 80
WIRE 64 160 64 128
WIRE 112 160 64 160
SYMBOL cktsym\\gnd 176 352 R0
SYMATTR InstName U2
SYMBOL cktsym\\vsource -96 160 R0
SYMATTR Value 5
SYMATTR InstName Vdd
SYMBOL cktsym\\gnd -96 224 R0
SYMATTR InstName U4
SYMBOL cktsym\\vdd 176 80 R0
SYMATTR InstName U5
SYMBOL cktsym\\vdd -96 96 R0
SYMATTR InstName U6
SYMBOL cktsym\\nmos3 176 160 R0
SYMATTR InstName U1
SYMBOL cktsym\\vdd 64 128 R0
SYMATTR InstName U3
SYMBOL cktsym\\vsource 176 288 R0
SYMATTR Value 1
SYMATTR InstName Vin
TEXT -128 296 Left 2 !.include engr2420.sub
TEXT -128 320 Left 2 !.dc Vin 0 5 0.01
