Version 4
SHEET 1 880 680
WIRE 144 128 80 128
SYMBOL cktsym\\pmos3 208 128 R0
SYMATTR InstName U1
SYMBOL cktsym\\vsource 368 128 R0
SYMATTR Value 5
SYMATTR InstName Vdd
SYMBOL cktsym\\vsource 80 192 R0
SYMATTR Value 1
SYMATTR InstName Vin
SYMBOL cktsym\\gnd 80 256 R0
SYMATTR InstName U2
SYMBOL cktsym\\gnd 368 192 R0
SYMATTR InstName U3
SYMBOL cktsym\\gnd 208 192 R0
SYMATTR InstName U4
SYMBOL cktsym\\vdd 368 64 R0
SYMATTR InstName U5
SYMBOL cktsym\\vdd 208 64 R0
SYMATTR InstName U6
TEXT 192 280 Left 2 !.include engr2420.sub
TEXT 190 308 Left 2 !.dc Vin 0 5 0.01
