Version 4
SHEET 1 880 680
WIRE 192 112 144 112
WIRE 240 112 192 112
WIRE 80 224 80 192
WIRE 192 224 192 112
WIRE 192 224 80 224
WIRE 304 240 304 192
WIRE 432 240 304 240
WIRE 80 256 80 224
WIRE 304 256 304 240
WIRE 80 400 80 384
WIRE 304 400 304 384
WIRE 80 448 80 416
WIRE 192 448 80 448
WIRE 304 448 304 416
WIRE 304 448 192 448
WIRE 192 480 192 448
WIRE 192 512 192 496
FLAG -224 384 0
FLAG -352 384 0
FLAG -480 384 0
FLAG -608 384 0
FLAG 192 640 0
FLAG -352 256 V1
FLAG 16 320 V1
FLAG -224 256 V2
FLAG 368 320 V2
FLAG -480 256 Vb
FLAG 128 576 Vb
FLAG 432 240 Vout
SYMBOL cktsym\\pmos3 304 112 R0
SYMATTR InstName U1
SYMBOL cktsym\\pmos3 80 112 R180
SYMATTR InstName U2
SYMBOL cktsym\\nmos3 80 320 R0
SYMATTR InstName U3
SYMBOL cktsym\\nmos3 304 320 R180
SYMATTR InstName U4
SYMBOL cktsym\\nmos3 192 576 R0
SYMATTR InstName U5
SYMBOL cktsym\\vsource -608 320 R0
SYMATTR Value 5
SYMATTR InstName Vdd
SYMBOL cktsym\\vsource -480 320 R0
SYMATTR Value 0.6152
SYMATTR InstName Vb
SYMBOL cktsym\\vsource -352 320 R0
SYMATTR Value 0
SYMATTR InstName V1
SYMBOL cktsym\\vsource -224 320 R0
SYMATTR Value 2
SYMATTR InstName V2
SYMBOL cktsym\\vdd -608 256 R0
SYMATTR InstName U6
SYMBOL cktsym\\vdd 80 48 R0
SYMATTR InstName U7
SYMBOL cktsym\\vdd 304 48 R0
SYMATTR InstName U8
SYMBOL cktsym\\ammeter1 80 176 R0
SYMATTR InstName I3
SYMBOL cktsym\\ammeter1 304 176 R0
SYMATTR InstName I4
SYMBOL cktsym\\ammeter1 80 400 R0
SYMATTR InstName I1
SYMBOL cktsym\\ammeter1 304 400 R0
SYMATTR InstName I2
SYMBOL cktsym\\ammeter1 192 480 R0
SYMATTR InstName Ib
TEXT -600 448 Left 2 !.include engr2420.sub
TEXT -600 472 Left 2 !.dc V1 0 5 0.01
TEXT -584 152 Left 2 ;Threshold = 0.6152 V\nStrong Inversion = 1 V
