Version 4
SHEET 1 880 716
WIRE 192 112 144 112
WIRE 240 112 192 112
WIRE 80 224 80 192
WIRE 192 224 192 112
WIRE 192 224 80 224
WIRE 304 240 304 192
WIRE 384 240 304 240
WIRE 480 240 400 240
WIRE 80 256 80 224
WIRE 304 256 304 240
WIRE 80 400 80 384
WIRE 304 400 304 384
WIRE 80 448 80 416
WIRE 192 448 80 448
WIRE 304 448 304 416
WIRE 304 448 192 448
WIRE 192 480 192 448
WIRE 192 512 192 496
FLAG -304 384 0
FLAG -432 384 0
FLAG -560 384 0
FLAG -688 384 0
FLAG 192 640 0
FLAG -432 256 V1
FLAG 16 320 V1
FLAG -304 256 V2
FLAG 368 320 V2
FLAG -560 256 Vb
FLAG 128 576 Vb
FLAG 480 240 Vout
FLAG -176 384 0
FLAG -176 256 Vout
SYMBOL cktsym\\pmos3 304 112 R0
SYMATTR InstName U1
SYMBOL cktsym\\pmos3 80 112 R180
SYMATTR InstName U2
SYMBOL cktsym\\nmos3 80 320 R0
SYMATTR InstName U3
SYMBOL cktsym\\nmos3 304 320 R180
SYMATTR InstName U4
SYMBOL cktsym\\nmos3 192 576 R0
SYMATTR InstName U5
SYMBOL cktsym\\vsource -688 320 R0
SYMATTR Value 5
SYMATTR InstName Vdd
SYMBOL cktsym\\vsource -560 320 R0
SYMATTR Value 0.6152
SYMATTR InstName Vb
SYMBOL cktsym\\vsource -432 320 R0
SYMATTR Value 2.5
SYMATTR InstName V1
SYMBOL cktsym\\vsource -304 320 R0
SYMATTR Value 2.5
SYMATTR InstName V2
SYMBOL cktsym\\vdd -688 256 R0
SYMATTR InstName U6
SYMBOL cktsym\\vdd 80 48 R0
SYMATTR InstName U7
SYMBOL cktsym\\vdd 304 48 R0
SYMATTR InstName U8
SYMBOL cktsym\\ammeter1 80 176 R0
SYMATTR InstName I3
SYMBOL cktsym\\ammeter1 304 176 R0
SYMATTR InstName I4
SYMBOL cktsym\\ammeter1 80 400 R0
SYMATTR InstName I1
SYMBOL cktsym\\ammeter1 304 400 R0
SYMATTR InstName I2
SYMBOL cktsym\\ammeter1 192 480 R0
SYMATTR InstName Ib
SYMBOL cktsym\\ammeter1 384 240 R270
WINDOW 0 18 8 VTop 2
SYMATTR InstName Iout
SYMBOL cktsym\\vsource -176 320 R0
SYMATTR Value 4.2881
SYMATTR InstName Vout
TEXT -680 448 Left 2 !.include engr2420.sub
TEXT -680 472 Left 2 !.dc V1 2 3 0.01
TEXT -664 152 Left 2 ;Threshold = 0.6152 V\nStrong Inversion = 1 V
