Version 4
SHEET 1 880 680
WIRE 288 -96 208 -96
WIRE 208 -80 208 -96
WIRE 288 -64 288 -96
WIRE 208 64 208 48
WIRE 144 128 96 128
WIRE 96 160 96 128
WIRE 208 208 208 192
SYMBOL cktsym\\pmos3 208 128 R0
SYMATTR InstName U1
SYMBOL cktsym\\vsource 208 -16 R180
WINDOW 3 48 -16 Left 0
WINDOW 0 48 16 Left 0
SYMATTR Value 1
SYMATTR InstName Vin
SYMBOL cktsym\\gnd 288 -64 R0
SYMATTR InstName U2
SYMBOL cktsym\\gnd 208 208 R0
SYMATTR InstName U3
SYMBOL cktsym\\gnd 96 160 R0
SYMATTR InstName U4
TEXT -120 24 Left 2 !.include engr2420.sub
TEXT -120 48 Left 2 !.dc Vin 0 5 0.01
