Version 4
SHEET 1 880 680
WIRE 352 -192 240 -192
WIRE 352 -128 352 -192
WIRE 240 -96 240 -192
WIRE 240 96 240 32
WIRE 176 160 32 160
WIRE 32 192 32 160
WIRE 32 352 32 320
FLAG 352 -128 0
FLAG 32 352 0
FLAG 240 352 0
SYMBOL cktsym\\vsource 240 -32 R180
WINDOW 3 48 -16 Left 0
WINDOW 0 48 16 Left 0
SYMATTR Value 5
SYMATTR InstName Vdd
SYMBOL cktsym\\vsource 32 256 R0
SYMATTR Value 4.4341
SYMATTR InstName VG
SYMBOL cktsym\\pmos3 240 160 R0
SYMATTR InstName U1
SYMBOL cktsym\\vsource 240 288 R0
SYMATTR Value 1
SYMATTR InstName Vin
TEXT 0 376 Left 2 !.dc Vin 0 5 0.01
TEXT 0 400 Left 2 !.include engr2420.sub
