Version 4
SHEET 1 880 680
WIRE 80 -80 64 -80
WIRE 464 -80 80 -80
WIRE 0 16 0 -16
WIRE 80 16 80 -80
WIRE 80 16 0 16
WIRE 528 16 528 -16
WIRE 240 64 224 64
WIRE 304 64 240 64
WIRE 0 80 0 16
WIRE 240 128 240 64
WIRE 240 128 160 128
WIRE 528 128 528 32
WIRE 608 128 528 128
WIRE 688 128 624 128
WIRE 368 144 368 128
WIRE 160 160 160 128
WIRE 0 176 0 96
WIRE 528 208 528 128
WIRE 368 256 368 160
WIRE 448 256 368 256
WIRE 368 272 368 256
WIRE 528 272 528 224
WIRE -832 288 -832 272
WIRE -704 288 -704 272
WIRE -576 288 -576 272
WIRE -448 288 -448 272
WIRE 448 336 448 256
WIRE 448 336 432 336
WIRE 464 336 448 336
WIRE 0 352 0 304
WIRE 80 352 0 352
WIRE 160 352 160 304
WIRE 160 352 80 352
WIRE 80 384 80 352
WIRE 368 416 368 400
WIRE 528 416 528 400
FLAG 80 528 0
FLAG 368 416 0
FLAG 528 416 0
FLAG -832 288 0
FLAG -704 288 0
FLAG -576 288 0
FLAG -448 288 0
FLAG -64 240 V1
FLAG -704 144 V1
FLAG 688 128 Vout
FLAG -576 144 V2
FLAG 224 240 V2
FLAG -448 144 Vb
FLAG 16 464 Vb
FLAG -304 288 0
FLAG -304 160 Vout
SYMBOL cktsym\\nmos3 0 240 R0
SYMATTR InstName U1
SYMBOL cktsym\\nmos3 160 240 R180
SYMATTR InstName U2
SYMBOL cktsym\\nmos3 80 464 R0
SYMATTR InstName U3
SYMBOL cktsym\\ammeter1 80 384 R0
SYMATTR InstName Ib
SYMBOL cktsym\\pmos3 0 -80 R180
SYMATTR InstName U4
SYMBOL cktsym\\pmos3 160 64 R180
SYMATTR InstName U5
SYMBOL cktsym\\pmos3 368 64 R0
SYMATTR InstName U6
SYMBOL cktsym\\pmos3 528 -80 R0
SYMATTR InstName U7
SYMBOL cktsym\\ammeter1 0 80 R0
SYMATTR InstName I1
SYMBOL cktsym\\ammeter1 160 160 R0
SYMATTR InstName I2
SYMBOL cktsym\\ammeter1 368 144 R0
SYMATTR InstName I7
SYMBOL cktsym\\ammeter1 528 16 R0
SYMATTR InstName I4
SYMBOL cktsym\\nmos3 368 336 R180
SYMATTR InstName U8
SYMBOL cktsym\\nmos3 528 336 R0
SYMATTR InstName U9
SYMBOL cktsym\\vdd 0 -144 R0
SYMATTR InstName U10
SYMBOL cktsym\\vdd 160 0 R0
SYMATTR InstName U11
SYMBOL cktsym\\vdd 368 0 R0
SYMATTR InstName U12
SYMBOL cktsym\\vdd 528 -144 R0
SYMATTR InstName U13
SYMBOL cktsym\\vsource -832 208 R0
SYMATTR Value 5
SYMATTR InstName Vdd
SYMBOL cktsym\\vsource -704 208 R0
SYMATTR Value 2.5
SYMATTR InstName V1
SYMBOL cktsym\\vsource -576 208 R0
SYMATTR Value 2.5
SYMATTR InstName V2
SYMBOL cktsym\\vsource -448 208 R0
SYMATTR Value 1
SYMATTR InstName Vb
SYMBOL cktsym\\vdd -832 144 R0
SYMATTR InstName U14
SYMBOL cktsym\\ammeter1 608 128 R270
WINDOW 0 18 8 VTop 2
SYMATTR InstName Iout
SYMBOL cktsym\\ammeter1 528 208 R0
SYMATTR InstName I8
SYMBOL cktsym\\vsource -304 224 R0
SYMATTR Value 0.9041
SYMATTR InstName Vout
TEXT -632 360 Left 2 !.include engr2420.sub
TEXT -632 400 Left 2 !.dc V1 1.7 3.3 0.0001
TEXT -552 8 Left 2 ;Threshold - 0.6152 V\nStrong Inversion -  1 V
