Version 4
SHEET 1 1072 680
WIRE 160 32 160 0
WIRE 352 32 352 0
WIRE 528 32 528 0
WIRE 704 32 704 0
WIRE 880 32 880 0
WIRE 160 80 160 48
WIRE 352 80 352 48
WIRE 528 80 528 48
WIRE 704 80 704 48
WIRE 880 80 880 48
WIRE 1040 80 1040 64
WIRE 96 144 32 144
WIRE 240 144 96 144
WIRE 288 144 240 144
WIRE 432 144 288 144
WIRE 464 144 432 144
WIRE 608 144 464 144
WIRE 640 144 608 144
WIRE 784 144 640 144
WIRE 816 144 784 144
WIRE 976 144 816 144
WIRE 1040 208 880 208
WIRE 240 224 240 144
WIRE 432 224 432 144
WIRE 608 224 608 144
WIRE 784 224 784 144
WIRE 160 288 160 208
WIRE 176 288 160 288
WIRE 352 288 352 208
WIRE 352 288 304 288
WIRE 368 288 352 288
WIRE 528 288 528 208
WIRE 528 288 496 288
WIRE 544 288 528 288
WIRE 704 288 704 208
WIRE 704 288 672 288
WIRE 720 288 704 288
WIRE 880 288 880 208
WIRE 880 288 848 288
WIRE 160 320 160 288
FLAG 160 320 0
FLAG -128 192 0
FLAG 32 272 0
SYMBOL cktsym\\nmos3 160 144 R0
SYMATTR InstName U1
SYMBOL cktsym\\nmos3 352 144 R0
SYMATTR InstName U2
SYMBOL cktsym\\nmos3 528 144 R0
SYMATTR InstName U3
SYMBOL cktsym\\nmos3 704 144 R0
SYMATTR InstName U4
SYMBOL cktsym\\nmos3 880 144 R0
SYMATTR InstName U5
SYMBOL cktsym\\nmos3 1040 144 R0
SYMATTR InstName U6
SYMBOL cktsym\\nmos3 784 288 R90
WINDOW 39 16 12 Left 0
SYMATTR InstName U8
SYMATTR SpiceLine M=2
SYMBOL cktsym\\nmos3 608 288 R90
WINDOW 39 16 12 Left 0
SYMATTR InstName U9
SYMATTR SpiceLine M=2
SYMBOL cktsym\\nmos3 432 288 R90
WINDOW 39 16 12 Left 0
SYMATTR InstName U10
SYMATTR SpiceLine M=2
SYMBOL cktsym\\nmos3 240 288 R90
WINDOW 39 16 12 Left 0
SYMATTR InstName U11
SYMATTR SpiceLine M=2
SYMBOL cktsym\\ammeter1 160 48 R180
SYMATTR InstName V1
SYMBOL cktsym\\ammeter1 352 48 R180
SYMATTR InstName V2
SYMBOL cktsym\\ammeter1 528 48 R180
SYMATTR InstName V3
SYMBOL cktsym\\ammeter1 704 48 R180
SYMATTR InstName V4
SYMBOL cktsym\\ammeter1 880 48 R180
SYMATTR InstName V5
SYMBOL cktsym\\vdd -128 64 R0
SYMATTR InstName U7
SYMBOL cktsym\\vsource -128 128 R0
SYMATTR Value 5
SYMATTR InstName Vdd
SYMBOL cktsym\\vsource 32 208 R0
SYMATTR Value 0
SYMATTR InstName Vg
SYMBOL cktsym\\vdd 1040 64 R0
SYMATTR InstName U12
SYMBOL cktsym\\vdd 880 0 R0
SYMATTR InstName U13
SYMBOL cktsym\\vdd 704 0 R0
SYMATTR InstName U14
SYMBOL cktsym\\vdd 528 0 R0
SYMATTR InstName U15
SYMBOL cktsym\\vdd 352 0 R0
SYMATTR InstName U16
SYMBOL cktsym\\vdd 160 0 R0
SYMATTR InstName U17
