Version 4
SHEET 1 880 680
WIRE 176 64 0 64
WIRE 352 64 176 64
WIRE 0 112 0 64
WIRE 96 128 96 112
WIRE 112 128 96 128
WIRE 272 128 272 112
WIRE 288 128 272 128
WIRE 176 208 176 192
WIRE 176 256 176 224
WIRE 272 256 272 128
WIRE 288 256 272 256
WIRE 352 336 352 320
WIRE 352 384 352 352
FLAG 176 256 0
FLAG 352 384 0
FLAG 0 240 0
FLAG -160 240 0
SYMBOL cktsym\\nmos3 176 128 R0
SYMATTR InstName U1
SYMBOL cktsym\\nmos3 352 128 R0
SYMATTR InstName U2
SYMBOL cktsym\\vdd 96 112 R0
SYMATTR InstName U3
SYMBOL cktsym\\vdd 272 112 R0
SYMATTR InstName U4
SYMBOL cktsym\\nmos3 352 256 R0
SYMATTR InstName U5
SYMBOL cktsym\\ammeter1 176 208 R0
SYMATTR InstName I_out1
SYMBOL cktsym\\ammeter1 352 336 R0
SYMATTR InstName I_out2
SYMBOL cktsym\\isource 0 176 R180
WINDOW 3 48 -16 Left 0
WINDOW 0 48 16 Left 0
SYMATTR Value 0
SYMATTR InstName I_in
SYMBOL cktsym\\vdd -160 112 R0
SYMATTR InstName U6
SYMBOL cktsym\\vsource -160 176 R0
SYMATTR Value 5
SYMATTR InstName Vdd
TEXT -32 328 Left 2 !.include engr2420.sub
TEXT -32 352 Left 2 !.dc I_in 0 0.001 0.00001
