Version 4
SHEET 1 880 680
WIRE 368 -32 368 -48
WIRE 368 -32 272 -32
WIRE 272 32 272 -32
WIRE 304 32 272 32
WIRE 16 96 16 80
WIRE 112 96 16 96
WIRE 16 160 16 96
WIRE 48 160 16 160
WIRE 272 160 272 32
WIRE 304 160 272 160
WIRE 112 256 112 224
WIRE 368 256 368 224
WIRE 368 256 112 256
WIRE 112 288 112 256
WIRE 112 432 112 416
FLAG 112 432 0
FLAG -112 80 0
SYMBOL cktsym\\nmos3 112 160 R0
SYMATTR InstName U1
SYMBOL cktsym\\isource 112 352 R0
SYMATTR Value 0
SYMATTR InstName I_in
SYMBOL cktsym\\vdd -112 -48 R0
SYMATTR InstName U3
SYMBOL cktsym\\vsource -112 16 R0
SYMATTR Value 5
SYMATTR InstName Vdd
SYMBOL cktsym\\vdd 16 80 R0
SYMATTR InstName U4
SYMBOL cktsym\\nmos3 368 32 R0
SYMATTR InstName U2
SYMBOL cktsym\\nmos3 368 160 R0
SYMATTR InstName U5
SYMBOL cktsym\\vdd 368 -48 R0
SYMATTR InstName U6
TEXT 272 304 Left 2 !.include engr2420.sub
TEXT 272 336 Left 2 !.dc I_in 0 0.001 0.00001
