Version 4
SHEET 1 1192 680
WIRE 48 -208 0 -208
WIRE 304 -208 48 -208
WIRE 112 -128 112 -144
WIRE 176 -128 112 -128
WIRE 848 -128 304 -128
WIRE 112 -112 112 -128
WIRE 368 -112 368 -144
WIRE -32 -48 -96 -48
WIRE 0 -48 0 -208
WIRE 0 -48 -32 -48
WIRE 48 -48 0 -48
WIRE 304 -48 48 -48
WIRE 112 48 112 16
WIRE 896 48 112 48
WIRE -160 64 -160 16
WIRE -32 64 -32 -48
WIRE -32 64 -160 64
WIRE 368 144 368 16
WIRE 672 144 368 144
WIRE -160 208 -160 64
WIRE -160 208 -368 208
WIRE 112 208 112 48
WIRE 368 208 368 144
WIRE 672 224 672 144
WIRE -224 272 -256 272
WIRE 848 272 848 -128
WIRE 960 272 960 112
WIRE 960 272 848 272
WIRE 960 304 960 272
WIRE 1040 304 960 304
WIRE 1120 304 1040 304
WIRE -160 336 -368 336
WIRE 112 352 112 336
WIRE 256 352 112 352
WIRE 368 352 368 336
WIRE 368 352 256 352
WIRE 736 352 736 288
WIRE 848 352 736 352
WIRE -160 400 -160 336
WIRE 256 400 256 352
WIRE 736 416 736 352
WIRE 960 416 960 304
WIRE -224 464 -272 464
WIRE 192 464 -224 464
WIRE 848 480 848 352
WIRE 848 480 800 480
WIRE 896 480 848 480
FLAG 48 272 V1
FLAG 432 272 Vout
FLAG -272 464 Vb
FLAG 1120 304 Vout
FLAG 496 -464 V1
FLAG 624 -464 V2
FLAG 880 -464 Vb
FLAG -256 272 Vout
FLAG -432 272 V1
SYMBOL cktsym\\nmos3 112 272 R0
SYMATTR InstName U1
SYMBOL cktsym\\nmos3 368 272 M0
SYMATTR InstName U2
SYMBOL cktsym\\nmos3 256 464 R0
SYMATTR InstName U3
SYMBOL cktsym\\nmos3 -160 464 R0
SYMATTR InstName U4
SYMBOL cktsym\\nmos3 -160 272 R0
SYMATTR InstName U5
SYMBOL cktsym\\nmos3 736 480 R180
SYMATTR InstName U6
SYMBOL cktsym\\nmos3 960 480 R0
SYMATTR InstName U7
SYMBOL cktsym\\pmos3 -160 -48 R180
SYMATTR InstName U8
SYMBOL cktsym\\pmos3 112 -48 R0
SYMATTR InstName U9
SYMBOL cktsym\\pmos3 368 -48 R0
SYMATTR InstName U10
SYMBOL cktsym\\pmos3 736 224 R0
SYMATTR InstName U11
SYMBOL cktsym\\pmos3 960 48 R0
SYMATTR InstName U12
SYMBOL cktsym\\vdd -160 -112 R0
SYMATTR InstName U13
SYMBOL cktsym\\vdd 736 160 R0
SYMATTR InstName U16
SYMBOL cktsym\\vdd 960 -16 R0
SYMATTR InstName U17
SYMBOL cktsym\\gnd -160 528 R0
SYMATTR InstName U18
SYMBOL cktsym\\gnd 256 528 R0
SYMATTR InstName U19
SYMBOL cktsym\\gnd 736 544 R0
SYMATTR InstName U20
SYMBOL cktsym\\gnd 960 544 R0
SYMATTR InstName U21
SYMBOL cktsym\\vsource 496 -400 R0
WINDOW 39 0 0 Left 0
WINDOW 3 48 12 Left 0
SYMATTR Value2 AC 1 0
SYMATTR Value 2.5
SYMATTR InstName V1
SYMBOL cktsym\\gnd 496 -336 R0
SYMATTR InstName U23
SYMBOL cktsym\\vsource 624 -400 R0
SYMATTR Value 2.5V
SYMATTR InstName V2
SYMBOL cktsym\\gnd 624 -336 R0
SYMATTR InstName U25
SYMBOL cktsym\\vdd 752 -464 R0
SYMATTR InstName U26
SYMBOL cktsym\\vsource 752 -400 R0
SYMATTR Value 5V
SYMATTR InstName Vdd
SYMBOL cktsym\\gnd 752 -336 R0
SYMATTR InstName U27
SYMBOL cktsym\\vsource 880 -400 R0
SYMATTR Value 1V
SYMATTR InstName Vb
SYMBOL cktsym\\gnd 880 -336 R0
SYMATTR InstName U29
SYMBOL cktsym\\capacitor 1040 368 R0
SYMATTR Value 50p
SYMATTR InstName C1
SYMBOL cktsym\\gnd 1040 432 R0
SYMATTR InstName U30
SYMBOL cktsym\\capacitor 240 -128 R90
WINDOW 3 32 0 VTop 2
WINDOW 0 -32 0 VBottom 2
SYMATTR Value {C}
SYMATTR InstName C2
SYMBOL cktsym\\nmos3 -368 272 R0
SYMATTR InstName U22
SYMBOL cktsym\\pmos3 112 -208 R0
SYMATTR InstName U14
SYMBOL cktsym\\pmos3 368 -208 R0
SYMATTR InstName U15
SYMBOL cktsym\\vdd 112 -272 R0
SYMATTR InstName U24
SYMBOL cktsym\\vdd 368 -272 R0
SYMATTR InstName U28
TEXT 496 -256 Left 2 !.include engr2420.sub
TEXT 496 -216 Left 2 ;Strong Inversion - 1V
TEXT 496 -192 Left 2 !.ac dec 100 1 1e10
TEXT 496 -168 Left 2 !.param C=800f
