Version 4
SHEET 1 1128 680
WIRE -32 -48 -96 -48
WIRE 48 -48 -32 -48
WIRE 304 -48 48 -48
WIRE 368 32 368 16
WIRE 672 32 368 32
WIRE -160 64 -160 16
WIRE -32 64 -32 -48
WIRE -32 64 -160 64
WIRE 112 128 112 16
WIRE 896 128 112 128
WIRE -160 208 -160 64
WIRE 112 208 112 128
WIRE 368 208 368 32
WIRE -224 272 -256 272
WIRE 960 304 960 192
WIRE 1056 304 960 304
WIRE 112 352 112 336
WIRE 256 352 112 352
WIRE 368 352 368 336
WIRE 368 352 256 352
WIRE 736 352 736 96
WIRE 848 352 736 352
WIRE -160 400 -160 336
WIRE 256 400 256 352
WIRE 736 416 736 352
WIRE 960 416 960 304
WIRE -256 464 -256 272
WIRE -256 464 -272 464
WIRE -224 464 -256 464
WIRE 192 464 -224 464
WIRE 848 480 848 352
WIRE 848 480 800 480
WIRE 896 480 848 480
FLAG 48 272 V1
FLAG 432 272 V2
FLAG -272 464 Vb
FLAG 1056 304 Vout
SYMBOL cktsym\\nmos3 112 272 R0
SYMATTR InstName U1
SYMBOL cktsym\\nmos3 368 272 M0
SYMATTR InstName U2
SYMBOL cktsym\\nmos3 256 464 R0
SYMATTR InstName U3
SYMBOL cktsym\\nmos3 -160 464 R0
SYMATTR InstName U4
SYMBOL cktsym\\nmos3 -160 272 R0
SYMATTR InstName U5
SYMBOL cktsym\\nmos3 736 480 R180
SYMATTR InstName U6
SYMBOL cktsym\\nmos3 960 480 R0
SYMATTR InstName U7
SYMBOL cktsym\\pmos3 -160 -48 R180
SYMATTR InstName U8
SYMBOL cktsym\\pmos3 112 -48 R0
SYMATTR InstName U9
SYMBOL cktsym\\pmos3 368 -48 R0
SYMATTR InstName U10
SYMBOL cktsym\\pmos3 736 32 R0
SYMATTR InstName U11
SYMBOL cktsym\\pmos3 960 128 R0
SYMATTR InstName U12
SYMBOL cktsym\\vdd -160 -112 R0
SYMATTR InstName U13
SYMBOL cktsym\\vdd 112 -112 R0
SYMATTR InstName U14
SYMBOL cktsym\\vdd 368 -112 R0
SYMATTR InstName U15
SYMBOL cktsym\\vdd 736 -32 R0
SYMATTR InstName U16
SYMBOL cktsym\\vdd 960 64 R0
SYMATTR InstName U17
SYMBOL cktsym\\gnd -160 528 R0
SYMATTR InstName U18
SYMBOL cktsym\\gnd 256 528 R0
SYMATTR InstName U19
SYMBOL cktsym\\gnd 736 544 R0
SYMATTR InstName U20
SYMBOL cktsym\\gnd 960 544 R0
SYMATTR InstName U21
