Version 4
SHEET 1 1640 680
WIRE 112 -816 112 -832
WIRE 160 -816 112 -816
WIRE 368 -816 368 -832
WIRE 416 -816 368 -816
WIRE 48 -752 0 -752
WIRE 160 -752 160 -816
WIRE 160 -752 112 -752
WIRE 416 -752 416 -816
WIRE 416 -752 368 -752
WIRE 48 -736 48 -752
WIRE 304 -736 304 -752
WIRE 304 -736 48 -736
WIRE -160 -672 -192 -672
WIRE 112 -672 112 -688
WIRE 144 -672 112 -672
WIRE 368 -672 368 -688
WIRE 400 -672 368 -672
WIRE -192 -608 -192 -672
WIRE -160 -608 -192 -608
WIRE -32 -608 -96 -608
WIRE 48 -608 -32 -608
WIRE 144 -608 144 -672
WIRE 144 -608 112 -608
WIRE 400 -608 400 -672
WIRE 400 -608 368 -608
WIRE 48 -592 48 -608
WIRE 304 -592 304 -608
WIRE 304 -592 48 -592
WIRE -160 -496 -160 -544
WIRE -32 -496 -32 -608
WIRE -32 -496 -160 -496
WIRE -160 -464 -160 -496
WIRE 0 -448 0 -752
WIRE 112 -448 112 -528
WIRE 112 -448 0 -448
WIRE 368 -448 368 -544
WIRE 512 -448 368 -448
WIRE 112 -432 112 -448
WIRE 368 -432 368 -448
WIRE 48 -368 0 -368
WIRE 144 -368 112 -368
WIRE 400 -368 368 -368
WIRE 144 -304 144 -368
WIRE 144 -304 112 -304
WIRE 400 -304 400 -368
WIRE 400 -304 368 -304
WIRE 112 -256 112 -304
WIRE 368 -256 368 -304
WIRE 160 -192 112 -192
WIRE 368 -192 320 -192
WIRE 160 -128 160 -192
WIRE 160 -128 112 -128
WIRE 240 -128 160 -128
WIRE 320 -128 320 -192
WIRE 320 -128 240 -128
WIRE 368 -128 320 -128
WIRE 240 -80 240 -128
WIRE 704 -32 656 -32
WIRE 944 -32 912 -32
WIRE 288 -16 240 -16
WIRE 592 32 560 32
WIRE 704 32 704 -32
WIRE 704 32 656 32
WIRE 848 32 736 32
WIRE 944 32 944 -32
WIRE 944 32 912 32
WIRE 288 48 288 -16
WIRE 288 48 240 48
WIRE 592 48 592 32
WIRE 736 48 736 32
WIRE 736 48 592 48
WIRE 560 112 560 32
WIRE 656 112 656 96
WIRE 656 112 560 112
WIRE 656 128 656 112
WIRE 656 128 112 128
WIRE 912 160 912 96
WIRE 912 160 368 160
WIRE 1072 160 912 160
WIRE 1120 160 1072 160
WIRE -160 208 -160 -448
WIRE 112 208 112 128
WIRE 368 208 368 160
WIRE 656 208 656 128
WIRE 912 208 912 160
WIRE 1072 240 1072 160
WIRE -224 272 -256 272
WIRE -128 272 -160 272
WIRE 160 272 112 272
WIRE 368 272 320 272
WIRE 512 272 512 -448
WIRE 592 272 512 272
WIRE 720 272 656 272
WIRE 912 272 848 272
WIRE -128 336 -128 272
WIRE -128 336 -160 336
WIRE 720 336 720 272
WIRE 720 336 656 336
WIRE 848 336 848 272
WIRE 912 336 848 336
WIRE 112 352 112 336
WIRE 160 352 160 272
WIRE 160 352 112 352
WIRE 256 352 160 352
WIRE 320 352 320 272
WIRE 320 352 256 352
WIRE 368 352 368 336
WIRE 368 352 320 352
WIRE -160 400 -160 336
WIRE 256 400 256 352
WIRE 656 400 656 336
WIRE 784 400 656 400
WIRE 912 400 912 336
WIRE 912 400 784 400
WIRE -256 464 -256 272
WIRE -256 464 -272 464
WIRE -224 464 -256 464
WIRE -96 464 -160 464
WIRE 304 464 256 464
WIRE 864 464 784 464
WIRE -256 496 -256 464
WIRE 192 496 192 464
WIRE 192 496 -256 496
WIRE -96 528 -96 464
WIRE -96 528 -160 528
WIRE 304 528 304 464
WIRE 304 528 256 528
WIRE 864 528 864 464
WIRE 864 528 784 528
FLAG 48 272 V1
FLAG -272 464 Vb
FLAG 656 -416 V1
FLAG 784 -416 V2
FLAG 1040 -416 Vb
FLAG 976 272 V2
FLAG 1120 160 Vout
FLAG 432 272 V2
FLAG 176 -16 Vb
FLAG 48 -192 V1
FLAG 432 -192 V2
FLAG 0 -368 Vb
FLAG 720 464 Vb
FLAG 304 -368 Vb
SYMBOL cktsym\\vdd -160 -672 R0
SYMATTR InstName U13
SYMBOL cktsym\\gnd -160 528 R0
SYMATTR InstName U18
SYMBOL cktsym\\gnd 784 528 R0
SYMATTR InstName U19
SYMBOL cktsym\\vsource 656 -352 R0
WINDOW 123 48 12 Left 0
WINDOW 39 0 0 Left 0
WINDOW 3 48 16 Invisible 0
SYMATTR Value2 AC 1 0
SYMATTR Value 2.5
SYMATTR InstName V1
SYMBOL cktsym\\gnd 656 -288 R0
SYMATTR InstName U23
SYMBOL cktsym\\vsource 784 -352 R0
WINDOW 123 0 0 Left 0
WINDOW 39 0 0 Left 0
SYMATTR Value 2.5V
SYMATTR InstName V2
SYMBOL cktsym\\gnd 784 -288 R0
SYMATTR InstName U25
SYMBOL cktsym\\vdd 912 -416 R0
SYMATTR InstName U26
SYMBOL cktsym\\vsource 912 -352 R0
SYMATTR Value 5V
SYMATTR InstName Vdd
SYMBOL cktsym\\gnd 912 -288 R0
SYMATTR InstName U27
SYMBOL cktsym\\vsource 1040 -352 R0
SYMATTR Value 1V
SYMATTR InstName Vb
SYMBOL cktsym\\gnd 1040 -288 R0
SYMATTR InstName U29
SYMBOL cktsym\\vdd 112 -832 R0
SYMATTR InstName U24
SYMBOL cktsym\\vdd 368 -832 R0
SYMATTR InstName U28
SYMBOL cktsym\\ammeter2 -160 -464 R0
SYMATTR InstName I8
SYMBOL cktsym\\ammeter2 112 -544 R0
SYMATTR InstName I9
SYMBOL cktsym\\vdd 656 -32 R0
SYMATTR InstName U6
SYMBOL cktsym\\vdd 912 -32 R0
SYMATTR InstName U7
SYMBOL cktsym\\gnd 256 528 R0
SYMATTR InstName U17
SYMBOL cktsym\\gnd 240 48 R0
SYMATTR InstName U32
SYMBOL cktsym\\capacitor 1072 304 R0
SYMATTR Value 10pF
SYMATTR InstName C1
SYMBOL cktsym\\gnd 1072 368 R0
SYMATTR InstName U35
SYMBOL cktsym\\pmos4 -160 -608 R180
SYMATTR InstName M2
SYMBOL cktsym\\pmos4 112 -752 R0
SYMATTR InstName M1
SYMATTR Value2 l=0.9u w=120u
SYMBOL cktsym\\pmos4 112 -608 R0
SYMATTR InstName M3
SYMATTR Value2 l=0.9u w=120u
SYMBOL cktsym\\pmos4 368 -752 R0
SYMATTR InstName M4
SYMATTR Value2 l=0.9u w=120u
SYMBOL cktsym\\pmos4 368 -608 R0
SYMATTR InstName M5
SYMATTR Value2 l=0.9u w=120u
SYMBOL cktsym\\pmos4 656 32 R0
SYMATTR InstName M6
SYMBOL cktsym\\pmos4 912 32 R0
SYMATTR InstName M7
SYMBOL cktsym\\nmos4 112 -368 R0
SYMATTR InstName M8
SYMATTR Value2 l=0.9u w=120u
SYMBOL cktsym\\nmos4 368 -368 R0
SYMATTR InstName M9
SYMATTR Value2 l=0.9u w=120u
SYMBOL cktsym\\nmos4 112 -192 R0
SYMATTR InstName M10
SYMATTR Value2 l=0.9u w=600u
SYMBOL cktsym\\nmos4 368 -192 R180
SYMATTR InstName M11
SYMATTR Value2 l=0.9u w=600u
SYMBOL cktsym\\nmos4 240 -16 R0
SYMATTR InstName M12
SYMBOL cktsym\\nmos4 112 272 R0
SYMATTR InstName M13
SYMATTR Value2 l=0.9u w=600u
SYMBOL cktsym\\nmos4 368 272 R180
SYMATTR InstName M14
SYMATTR Value2 l=0.9u w=600u
SYMBOL cktsym\\nmos4 256 464 R0
SYMATTR InstName M15
SYMBOL cktsym\\nmos4 -160 464 R0
SYMATTR InstName M16
SYMBOL cktsym\\nmos4 -160 272 R0
SYMATTR InstName M17
SYMBOL cktsym\\nmos4 656 272 R0
SYMATTR InstName M18
SYMATTR Value2 l=0.9u w=600u
SYMBOL cktsym\\nmos4 784 464 R0
SYMATTR InstName M19
SYMBOL cktsym\\nmos4 912 272 R180
SYMATTR InstName M20
SYMATTR Value2 l=0.9u w=600u
TEXT 656 -192 Left 2 !.include engr2420.sub
TEXT 656 -152 Left 2 ;Strong Inversion - 1V
TEXT 656 -128 Left 2 !.ac dec 100 1 1e11
