Version 4
SHEET 1 2216 1156
WIRE 544 -592 464 -592
WIRE 704 -592 544 -592
WIRE 768 -512 768 -528
WIRE 896 -512 768 -512
WIRE 608 -480 608 -528
WIRE 768 -480 768 -512
WIRE -64 -416 -80 -416
WIRE 464 -416 464 -592
WIRE 464 -416 -64 -416
WIRE 544 -416 464 -416
WIRE 704 -416 544 -416
WIRE -144 -336 -144 -352
WIRE -64 -336 -64 -416
WIRE -64 -336 -144 -336
WIRE 608 -272 608 -352
WIRE 768 -272 768 -352
WIRE 768 -272 608 -272
WIRE 608 -240 608 -272
WIRE 768 -240 768 -272
WIRE 160 -160 128 -160
WIRE 208 -160 160 -160
WIRE 608 -96 608 -112
WIRE 768 -96 768 -112
WIRE 64 -64 64 -96
WIRE 160 -64 160 -160
WIRE 160 -64 64 -64
WIRE 896 -64 896 -512
WIRE 272 -16 272 -96
WIRE 768 -16 768 -80
WIRE 768 -16 272 -16
WIRE 336 160 304 160
WIRE 416 160 336 160
WIRE 928 160 416 160
WIRE 608 192 608 -80
WIRE 608 192 528 192
WIRE 416 208 416 160
WIRE 608 208 608 192
WIRE 240 256 240 224
WIRE 336 256 336 160
WIRE 336 256 240 256
WIRE 528 272 528 192
WIRE 528 272 480 272
WIRE 544 272 528 272
WIRE 896 304 896 64
WIRE 992 304 992 224
WIRE 992 304 896 304
WIRE 1136 304 1136 240
WIRE 1136 304 992 304
WIRE 1200 304 1136 304
WIRE 64 320 64 -64
WIRE 240 320 240 256
WIRE -144 352 -144 -336
WIRE -144 352 -304 352
WIRE 64 352 64 336
WIRE 240 352 240 336
WIRE 768 352 768 -16
WIRE 864 352 768 352
WIRE 768 384 768 352
WIRE 992 384 992 304
WIRE 0 416 -32 416
WIRE 336 416 304 416
WIRE 864 448 864 352
WIRE 864 448 832 448
WIRE 928 448 864 448
WIRE -144 480 -304 480
WIRE 240 480 64 480
WIRE 304 480 240 480
WIRE 64 544 64 480
WIRE 240 544 240 480
WIRE -144 608 -144 480
WIRE 304 608 304 480
WIRE 304 608 128 608
WIRE 240 688 240 672
WIRE 368 688 240 688
WIRE 896 688 896 304
WIRE 896 688 496 688
WIRE -144 704 -144 624
WIRE 64 704 64 672
WIRE 240 704 240 688
WIRE -80 768 -224 768
WIRE 0 768 -80 768
WIRE 176 768 0 768
FLAG -32 416 V2
FLAG 336 416 V1
FLAG -224 768 Vb
FLAG -496 -96 V1
FLAG -240 -96 Vb
FLAG -624 32 0
FLAG -496 32 0
FLAG -368 32 0
FLAG -240 32 0
FLAG 64 832 0
FLAG 544 -176 V2
FLAG 832 -176 V1
FLAG 608 336 0
FLAG 768 512 0
FLAG 992 512 0
FLAG -144 832 0
FLAG 416 336 0
FLAG 1136 432 0
FLAG 1200 304 Vout
FLAG 1136 240 V2
FLAG -208 416 V2
FLAG -368 416 V1
FLAG 240 832 0
SYMBOL cktsym\\nmos3 64 416 R0
SYMATTR InstName U1
SYMBOL cktsym\\nmos3 240 416 R180
SYMATTR InstName U2
SYMBOL cktsym\\pmos3 608 -176 R0
SYMATTR InstName U3
SYMBOL cktsym\\pmos3 768 -176 R180
SYMATTR InstName U4
SYMBOL cktsym\\pmos3 768 -416 R0
SYMATTR InstName U5
SYMBOL cktsym\\ammeter1 768 -96 R0
SYMATTR InstName I2p
SYMBOL cktsym\\ammeter1 608 -96 R0
SYMATTR InstName I1p
SYMBOL cktsym\\vsource -624 -32 R0
SYMATTR Value 5
SYMATTR InstName Vdd
SYMBOL cktsym\\vsource -496 -32 R0
WINDOW 123 48 44 Left 0
WINDOW 39 0 0 Left 0
SYMATTR Value2 AC 1 0
SYMATTR Value 2.5
SYMATTR InstName V1
SYMBOL cktsym\\vsource -368 -32 R0
SYMATTR Value 2.5
SYMATTR InstName V2
SYMBOL cktsym\\vdd -624 -96 R0
SYMATTR InstName U10
SYMBOL cktsym\\vsource -240 -32 R0
SYMATTR Value 1
SYMATTR InstName Vb
SYMBOL cktsym\\vdd -144 -480 R0
SYMATTR InstName U13
SYMBOL cktsym\\pmos3 -144 -416 R180
SYMATTR InstName U11
SYMATTR SpiceLine m=2
SYMBOL cktsym\\nmos3 64 768 R0
SYMATTR InstName U14
SYMBOL cktsym\\ammeter1 64 320 R0
SYMATTR InstName I1
SYMBOL cktsym\\ammeter1 240 320 R0
SYMATTR InstName I2
SYMBOL cktsym\\nmos3 608 272 R0
SYMATTR InstName U22
SYMBOL cktsym\\pmos3 64 -160 R180
SYMATTR InstName U24
SYMBOL cktsym\\pmos3 272 -160 R0
SYMATTR InstName U25
SYMBOL cktsym\\vdd 64 -224 R0
SYMATTR InstName U26
SYMBOL cktsym\\vdd 272 -224 R0
SYMATTR InstName U27
SYMBOL cktsym\\pmos3 240 160 R180
SYMATTR InstName U8
SYMBOL cktsym\\pmos3 992 160 R0
SYMATTR InstName U28
SYMBOL cktsym\\vdd 240 96 R0
SYMATTR InstName U29
SYMBOL cktsym\\vdd 992 96 R0
SYMATTR InstName U30
SYMBOL cktsym\\nmos3 768 448 R180
SYMATTR InstName U9
SYMBOL cktsym\\nmos3 992 448 R0
SYMATTR InstName U31
SYMBOL cktsym\\nmos3 -144 768 R180
SYMATTR InstName U32
SYMBOL cktsym\\ammeter1 -144 608 R0
SYMATTR InstName Ib1
SYMBOL cktsym\\nmos3 416 272 R180
SYMATTR InstName U18
SYMBOL cktsym\\capacitor 1136 368 R0
SYMATTR Value 10p
SYMATTR InstName C1
SYMBOL cktsym\\nmos3 -144 416 R0
SYMATTR InstName U6
SYMBOL cktsym\\nmos3 -304 416 R0
SYMATTR InstName U12
SYMBOL cktsym\\pmos3 608 -416 R0
SYMATTR InstName U15
SYMBOL cktsym\\pmos3 768 -592 R0
SYMATTR InstName U7
SYMBOL cktsym\\pmos3 608 -592 R0
SYMATTR InstName U16
SYMBOL cktsym\\vdd 608 -656 R0
SYMATTR InstName U17
SYMBOL cktsym\\vdd 768 -656 R0
SYMATTR InstName U19
SYMBOL cktsym\\nmos3 240 768 R0
SYMATTR InstName U20
SYMBOL cktsym\\nmos3 64 608 R180
SYMATTR InstName U21
SYMBOL cktsym\\nmos3 240 608 R180
SYMATTR InstName U23
SYMBOL cktsym\\capacitor 432 688 R90
WINDOW 3 32 0 VTop 2
WINDOW 0 -32 0 VBottom 2
SYMATTR Value {C}
SYMATTR InstName C2
SYMBOL cktsym\\capacitor 896 0 R180
WINDOW 3 40 -16 Left 0
WINDOW 0 40 16 Left 0
SYMATTR Value {C}
SYMATTR InstName C3
TEXT -552 112 Left 2 !.include engr2420.sub
TEXT -552 144 Left 2 !.ac dec 100 1 1e10
TEXT -552 168 Left 2 !.param C=800f
