Version 4
SHEET 1 880 680
WIRE 160 32 160 0
WIRE 160 192 160 160
WIRE 160 192 96 192
WIRE 224 192 160 192
WIRE 96 208 96 192
WIRE 224 208 224 192
WIRE 96 368 96 336
WIRE 224 368 224 336
FLAG 96 368 0
FLAG 224 368 0
FLAG -336 144 Vb
FLAG 96 96 Vb
FLAG -224 144 V1
FLAG 32 272 V1
FLAG -112 144 V2
FLAG 288 272 V2
FLAG -224 272 0
FLAG -112 272 0
FLAG -464 272 0
FLAG -336 272 0
SYMBOL cktsym\\vdd 160 0 R0
SYMATTR InstName U1
SYMBOL cktsym\\pmos3 160 96 R0
SYMATTR InstName U2
SYMBOL cktsym\\pmos3 96 272 R0
SYMATTR InstName U3
SYMBOL cktsym\\pmos3 224 272 R180
SYMATTR InstName U4
SYMBOL cktsym\\vsource -224 208 R0
SYMATTR Value 3
SYMATTR InstName V1
SYMBOL cktsym\\vsource -112 208 R0
SYMATTR Value 3
SYMATTR InstName V2
SYMBOL cktsym\\vsource -464 208 R0
SYMATTR Value 5
SYMATTR InstName Vdd
SYMBOL cktsym\\vsource -336 208 R0
SYMATTR Value 4.7
SYMATTR InstName Vb
SYMBOL cktsym\\vdd -464 144 R0
SYMATTR InstName U5
TEXT -376 0 Left 2 !.include engr2420.sub
TEXT -344 24 Left 2 !.dc V2 2.2 3.8 0.001
